object.cnt: Spatial object counts - 2-stage
NAME     AREA_LS_HA     AREA_TOT_HA  OBJ  HRU  LTE    RU MODFLOW  AQU CHA   RES REC   EXCO  DR CANAL PUMP OUT  CHANDEG 2DAQU  HERD  WRO
2_stage        30.             33.0    3    1    0     0       0    0   0     1   0      0   0     0    0   0        1     0     0    0



  









