object.cnt: Spatial object counts - 2-stage
NAME     AREA_LS_HA     AREA_TOT_HA  OBJ  HRU  LTE    SUB MODFLOW  AQU CHA   RES REC   EXCO DR CANAL PUMP OUT  CHANDEG 2DAQU
2_stage        30.             33.0    6    1    0     0    0       0    0     0   0    1   2     0    0   1        1     0



  









