object.cnt: Spatial object counts - 2-stage
 OBJ  HRU  LTE    SUB MODFLOW  AQU CHA   RES REC   EXCO DR CANAL PUMP OUT  CHANDEG 2DAQU
   4    1    0     0    0       0    0     0   1      0  0     0    0   1        1     0



  









