object.cnt: Spatial object counts - Little River Experimental Watershed
 OBJ  HRU  LTE    SUB MODFLOW  AQU CHA   RES REC   EXCO DR CANAL PUMP OUT  CHANDEG 2DAQU
   5    2    0     1    0       0    0     0   0      0  0     0    0   1        1     0



  









