pest_hru.ini: written by SWAT+ editor v1.2.3 on 2020-10-16 14:02
name                                        
no_pest                        soil            plant
                     ffa       0.00000       0.00000 
                     ffa-sa    0.00000       0.00000 
                     tfa       0.00000       0.00000 

