object.cnt: Spatial object counts - LREW4
        OBJS         HRU     HRU_LTE         SUB     MODFLOW         AQU        CHAN         RES      RECALL        EXCO          DR       CANAL        PUMP      OUTLET     CHANDEG       AQU2D   HERD   WRO
       16269       13568           0        1160           0        1160         381           0           0           0           0           0           0           0           0           0      0     0
