object.cnt: Spatial object counts - 2-stage
NAME     AREA_LS_HA     AREA_TOT_HA  OBJ  HRU  LTE    SUB MODFLOW  AQU CHA   RES REC   EXCO DR CANAL PUMP OUT  CHANDEG 2DAQU
2_stage        25.3          25.3     3    2    0     0    0       0    0     0   0    0   0     0    0   0        1     0



  









