object.cnt: Spatial object counts - (SWAT-DEG)
     OBJ  HRU      LTE      SUB  MODFLOW  AQU   CH  RES  RECALL  EXCO   DR CANAL PUMP  OUT CHANDEG
   53025    0    53025        0        0    0    0    0       0     0    0     0    0    0       0
