object.cnt: Spatial object counts - (SWAT-DEG)
     OBJ  HRU      LTE      SUB  MODFLOW  AQU   CH  RES  RECALL  EXCO   DR CANAL PUMP  OUT CHANDEG
   72250    0    53025    19225        0    0    0    0       0     0    0     0    0    0       0
