object.cnt: Spatial object counts - (SWAT-DEG)
NAME         AREA_LS_HA   AREA_TOT_HA      OBJ  HRU      LTE       RU  MODFLOW  AQU   CH  RES  RECALL  EXCO   DR CANAL PUMP  OUT CHANDEG  AQU2   HERD   WRO
TX_GLOBAL          0.00          0.00    53025    0    53025        0        0    0    0    0       0     0    0     0    0    0       0     0      0     0