management.sch: written by SWAT+ editor v1.0.0 on 2018-12-12 19:40
name                       numb_ops  numb_auto            op_typ       mon       day        hu_sch          op_data1          op_data2      op_data3  
moisture_grow                  2         0
                                                            mons        10        1        0                    null             null            1
                                                            mons        11       30        0                    null             null            0

corn                           3          0   
                                                            plnt         3         1       0.00000              corn              null       0.00000  
                                                            hvkl         7        31       0.00000              corn             grain       0.00000  
                                                            skip         0         0       0.00000              null              null       0.00000  
agrl                           3          0   
                                                            plnt         3         1       0.15000              agrl              null       0.00000  
                                                            hvkl         7        31       1.20000              agrl             grain       0.00000  
                                                            skip         0         0       0.00000              null              null       0.00000  
