object.cnt: Spatial object counts - Little River Experimental Watershed
NAME         AREA_LS_HA   AREA_TOT_HA   OBJ  HRU  LTE    SUB MODFLOW  AQU CHA   RES REC   EXCO DR CANAL PUMP OUT  CHANDEG 2DAQU
TREYNOR_IA         0.00          0.00     2    0    1     0    0       0    0     0   0      0  0     0    0   0        1     0



  









