object.cnt: Spatial object counts - Water_LS2_Take2
NAME   LS_AREA   TOT_AREA    OBJS         HRU     HRU_LTE         SUB     MODFLOW         AQU        CHAN         RES      RECALL        EXCO          DR       CANAL        PUMP      OUTLET     CHANDEG       AQU2D        HERD         WRO
LREW  32403.96   33188.22   16707       13727           0        1248           0        1248         262         222           0           0           0           0           0           0           0           0           0           0
