object.cnt: Spatial object counts - LREW_HRU-lte
        OBJS         HRU     HRU_LTE         SUB     MODFLOW         AQU        CHAN         RES      RECALL        EXCO          DR       CANAL        PUMP      OUTLET     CHANDEG       AQU2D
        6752           0        6059         231           0         231         231           0           0           0           0           0           0           0           0           0
